* SPICE NETLIST
***************************************

*.CALIBRE ABORT_INFO SOFTCHK
.SUBCKT crtmom PLUS MINUS BULK
.ENDS
***************************************
.SUBCKT cfmom PLUS MINUS BULK
.ENDS
***************************************
.SUBCKT cfmom_rf PLUS MINUS BULK
.ENDS
***************************************
.SUBCKT cfmom_mx PLUS1 MINUS1 PLUS2 MINUS2 BULK
.ENDS
***************************************
.SUBCKT lcesd1_rf PLUS MINUS
.ENDS
***************************************
.SUBCKT lcesd2_rf PLUS MINUS
.ENDS
***************************************
.SUBCKT mimcap_2p0_shield PLUS MINUS BULK
.ENDS
***************************************
.SUBCKT mimcap_2p0_sin TOP BOT
.ENDS
***************************************
.SUBCKT mimcap_2p0_sin_3t PLUS MINUS BULK
.ENDS
***************************************
.SUBCKT mimcap_2p0_wos PLUS MINUS BULK
.ENDS
***************************************
.SUBCKT moscap_rf PLUS MINUS BULK
.ENDS
***************************************
.SUBCKT moscap_rf33 PLUS MINUS BULK
.ENDS
***************************************
.SUBCKT moscap_rf33_nw PLUS MINUS BULK
.ENDS
***************************************
.SUBCKT moscap_rf_nw PLUS MINUS BULK
.ENDS
***************************************
.SUBCKT nmos_rf D G S B
.ENDS
***************************************
.SUBCKT nmos_rf33 D G S B
.ENDS
***************************************
.SUBCKT nmos_rf33_6t D G S B NG PG
.ENDS
***************************************
.SUBCKT nmos_rf_6t D G S B NG PG
.ENDS
***************************************
.SUBCKT nmoscap PLUS MINUS
.ENDS
***************************************
.SUBCKT nmoscap_33 PLUS MINUS
.ENDS
***************************************
.SUBCKT pmos_rf D G S B
.ENDS
***************************************
.SUBCKT pmos_rf33 D G S B
.ENDS
***************************************
.SUBCKT pmos_rf33_5t D G S B PG
.ENDS
***************************************
.SUBCKT pmos_rf33_nw D G S B
.ENDS
***************************************
.SUBCKT pmos_rf33_nw_5t D G S B PG
.ENDS
***************************************
.SUBCKT pmos_rf_5t D G S B PG
.ENDS
***************************************
.SUBCKT pmos_rf_nw D G S B
.ENDS
***************************************
.SUBCKT pmos_rf_nw_5t D G S B PG
.ENDS
***************************************
.SUBCKT rnod_m PLUS MINUS B
.ENDS
***************************************
.SUBCKT rnodrpo_m PLUS MINUS B
.ENDS
***************************************
.SUBCKT rnodw_m PLUS MINUS B
.ENDS
***************************************
.SUBCKT rnpo1_dis PLUS MINUS B
.ENDS
***************************************
.SUBCKT rnpo1rpo_dis PLUS MINUS B
.ENDS
***************************************
.SUBCKT rnpo1w_dis PLUS MINUS B
.ENDS
***************************************
.SUBCKT rnwod_m PLUS MINUS B
.ENDS
***************************************
.SUBCKT rnwsti_m PLUS MINUS B
.ENDS
***************************************
.SUBCKT rpod_m PLUS MINUS B
.ENDS
***************************************
.SUBCKT rpodrpo_m PLUS MINUS B
.ENDS
***************************************
.SUBCKT rpodw_m PLUS MINUS B
.ENDS
***************************************
.SUBCKT rppo1_dis PLUS MINUS B
.ENDS
***************************************
.SUBCKT rppo1rpo_dis PLUS MINUS B
.ENDS
***************************************
.SUBCKT rppo1w_dis PLUS MINUS B
.ENDS
***************************************
.SUBCKT rppolyhri_dis PLUS MINUS B
.ENDS
***************************************
.SUBCKT rppolyhri_rf PLUS MINUS BULK
.ENDS
***************************************
.SUBCKT rppolyl_rf PLUS MINUS BULK
.ENDS
***************************************
.SUBCKT rppolys_rf PLUS MINUS BULK
.ENDS
***************************************
.SUBCKT rppolywo_rf PLUS MINUS BULK
.ENDS
***************************************
.SUBCKT sbd_rf PLUS MINUS BULK
.ENDS
***************************************
.SUBCKT sbd_rf_nw PLUS MINUS BULK
.ENDS
***************************************
.SUBCKT spiral_std_mu_x_40k PLUS MINUS BULK
.ENDS
***************************************
.SUBCKT spiral_sym_ct_mu_x_40k PLUS MINUS BULK CTAP
.ENDS
***************************************
.SUBCKT spiral_sym_mu_x_40k PLUS MINUS BULK
.ENDS
***************************************
.SUBCKT xjvar_nr36 PLUS MINUS BULK
.ENDS
***************************************
.SUBCKT xjvar_w40 PLUS MINUS BULK
.ENDS
***************************************
.SUBCKT pad_corner
** N=7 EP=0 IP=0 FDC=0
*.CALIBRE ISOLATED NETS: VSS VDD
.ENDS
***************************************
.SUBCKT ICV_153
** N=8 EP=0 IP=7 FDC=0
.ENDS
***************************************
.SUBCKT padbox
** N=1 EP=0 IP=0 FDC=0
.ENDS
***************************************
.SUBCKT pad_in VSS pad VDD DataIn 7
** N=25 EP=5 IP=1 FDC=96
M0 VSS VSS 8 7 N L=3.5e-07 W=9e-06 $X=5700 $Y=147100 $D=0
M1 9 8 VSS 7 N L=3.5e-07 W=9e-06 $X=8100 $Y=147100 $D=0
M2 VSS VSS 11 7 N L=3.5e-07 W=9e-06 $X=13200 $Y=147100 $D=0
M3 11 VSS VSS 7 N L=3.5e-07 W=9e-06 $X=15600 $Y=147100 $D=0
M4 pad 11 VSS VSS N L=3.5e-07 W=2e-05 $X=15770 $Y=191300 $D=0
M5 VSS 11 pad VSS N L=3.5e-07 W=2e-05 $X=15770 $Y=196210 $D=0
M6 pad 11 VSS VSS N L=3.5e-07 W=2e-05 $X=15770 $Y=197780 $D=0
M7 VSS 11 pad VSS N L=3.5e-07 W=2e-05 $X=15770 $Y=202690 $D=0
M8 pad 11 VSS VSS N L=3.5e-07 W=2e-05 $X=15770 $Y=204260 $D=0
M9 VSS 11 pad VSS N L=3.5e-07 W=2e-05 $X=15770 $Y=209170 $D=0
M10 pad 11 VSS VSS N L=3.5e-07 W=2e-05 $X=15770 $Y=210740 $D=0
M11 VSS 11 pad VSS N L=3.5e-07 W=2e-05 $X=15770 $Y=215650 $D=0
M12 pad 11 VSS VSS N L=3.5e-07 W=2e-05 $X=15770 $Y=217220 $D=0
M13 VSS 11 pad VSS N L=3.5e-07 W=2e-05 $X=15770 $Y=222130 $D=0
M14 VSS VSS 11 7 N L=3.5e-07 W=9e-06 $X=18000 $Y=147100 $D=0
M15 11 VSS VSS 7 N L=3.5e-07 W=9e-06 $X=20400 $Y=147100 $D=0
M16 VSS VSS 11 7 N L=3.5e-07 W=9e-06 $X=22800 $Y=147100 $D=0
M17 11 8 VSS 7 N L=3.5e-07 W=9e-06 $X=25200 $Y=147100 $D=0
M18 VSS 8 11 7 N L=3.5e-07 W=9e-06 $X=27600 $Y=147100 $D=0
M19 11 8 VSS 7 N L=3.5e-07 W=9e-06 $X=30000 $Y=147100 $D=0
M20 VSS 8 11 7 N L=3.5e-07 W=9e-06 $X=32400 $Y=147100 $D=0
M21 11 8 VSS 7 N L=3.5e-07 W=9e-06 $X=34800 $Y=147100 $D=0
M22 10 9 11 7 N L=3.5e-07 W=9e-06 $X=37200 $Y=147100 $D=0
M23 11 9 10 7 N L=3.5e-07 W=9e-06 $X=39600 $Y=147100 $D=0
M24 10 9 11 7 N L=3.5e-07 W=9e-06 $X=42000 $Y=147100 $D=0
M25 11 9 10 7 N L=3.5e-07 W=9e-06 $X=44400 $Y=147100 $D=0
M26 pad 11 VSS VSS N L=3.5e-07 W=2e-05 $X=54230 $Y=191300 $D=0
M27 VSS 11 pad VSS N L=3.5e-07 W=2e-05 $X=54230 $Y=196210 $D=0
M28 pad 11 VSS VSS N L=3.5e-07 W=2e-05 $X=54230 $Y=197780 $D=0
M29 VSS 11 pad VSS N L=3.5e-07 W=2e-05 $X=54230 $Y=202690 $D=0
M30 pad 11 VSS VSS N L=3.5e-07 W=2e-05 $X=54230 $Y=204260 $D=0
M31 VSS 11 pad VSS N L=3.5e-07 W=2e-05 $X=54230 $Y=209170 $D=0
M32 pad 11 VSS VSS N L=3.5e-07 W=2e-05 $X=54230 $Y=210740 $D=0
M33 VSS 11 pad VSS N L=3.5e-07 W=2e-05 $X=54230 $Y=215650 $D=0
M34 pad 11 VSS VSS N L=3.5e-07 W=2e-05 $X=54230 $Y=217220 $D=0
M35 VSS 11 pad VSS N L=3.5e-07 W=2e-05 $X=54230 $Y=222130 $D=0
M36 12 pad VSS 7 N L=3.5e-07 W=9e-06 $X=59400 $Y=146950 $D=0
M37 VSS pad 12 7 N L=3.5e-07 W=9e-06 $X=61800 $Y=146950 $D=0
M38 12 pad VSS 7 N L=3.5e-07 W=9e-06 $X=64200 $Y=146950 $D=0
M39 VSS pad 12 7 N L=3.5e-07 W=9e-06 $X=66600 $Y=146950 $D=0
M40 12 pad VSS 7 N L=3.5e-07 W=9e-06 $X=69000 $Y=146950 $D=0
M41 VSS pad 12 7 N L=3.5e-07 W=9e-06 $X=71400 $Y=146950 $D=0
M42 DataIn 12 VSS 7 N L=3.5e-07 W=9e-06 $X=73800 $Y=146950 $D=0
M43 VSS 12 DataIn 7 N L=3.5e-07 W=9e-06 $X=76200 $Y=146950 $D=0
M44 DataIn 12 VSS 7 N L=3.5e-07 W=9e-06 $X=78600 $Y=146950 $D=0
M45 VSS 12 DataIn 7 N L=3.5e-07 W=9e-06 $X=81000 $Y=146950 $D=0
M46 DataIn 12 VSS 7 N L=3.5e-07 W=9e-06 $X=83400 $Y=146950 $D=0
M47 VSS 12 DataIn 7 N L=3.5e-07 W=9e-06 $X=85800 $Y=146950 $D=0
M48 VDD VSS 8 VDD P L=3.5e-07 W=1.56e-05 $X=5700 $Y=165550 $D=16
M49 9 8 VDD VDD P L=3.5e-07 W=1.56e-05 $X=8100 $Y=165550 $D=16
M50 VDD VSS 10 VDD P L=3.5e-07 W=1.56e-05 $X=13200 $Y=165550 $D=16
M51 10 VSS VDD VDD P L=3.5e-07 W=1.56e-05 $X=15600 $Y=165550 $D=16
M52 pad 10 VDD VDD P L=3.5e-07 W=2e-05 $X=15795 $Y=97085 $D=16
M53 VDD 10 pad VDD P L=3.5e-07 W=2e-05 $X=15795 $Y=101995 $D=16
M54 pad 10 VDD VDD P L=3.5e-07 W=2e-05 $X=15795 $Y=103565 $D=16
M55 VDD 10 pad VDD P L=3.5e-07 W=2e-05 $X=15795 $Y=108475 $D=16
M56 pad 10 VDD VDD P L=3.5e-07 W=2e-05 $X=15795 $Y=110045 $D=16
M57 VDD 10 pad VDD P L=3.5e-07 W=2e-05 $X=15795 $Y=114955 $D=16
M58 pad 10 VDD VDD P L=3.5e-07 W=2e-05 $X=15795 $Y=116525 $D=16
M59 VDD 10 pad VDD P L=3.5e-07 W=2e-05 $X=15795 $Y=121435 $D=16
M60 pad 10 VDD VDD P L=3.5e-07 W=2e-05 $X=15795 $Y=123005 $D=16
M61 VDD 10 pad VDD P L=3.5e-07 W=2e-05 $X=15795 $Y=127915 $D=16
M62 VDD VSS 10 VDD P L=3.5e-07 W=1.56e-05 $X=18000 $Y=165550 $D=16
M63 10 VSS VDD VDD P L=3.5e-07 W=1.56e-05 $X=20400 $Y=165550 $D=16
M64 VDD VSS 10 VDD P L=3.5e-07 W=1.56e-05 $X=22800 $Y=165550 $D=16
M65 10 9 VDD VDD P L=3.5e-07 W=1.56e-05 $X=25200 $Y=165550 $D=16
M66 VDD 9 10 VDD P L=3.5e-07 W=1.56e-05 $X=27600 $Y=165550 $D=16
M67 10 9 VDD VDD P L=3.5e-07 W=1.56e-05 $X=30000 $Y=165550 $D=16
M68 VDD 9 10 VDD P L=3.5e-07 W=1.56e-05 $X=32400 $Y=165550 $D=16
M69 10 9 VDD VDD P L=3.5e-07 W=1.56e-05 $X=34800 $Y=165550 $D=16
M70 11 8 10 VDD P L=3.5e-07 W=1.56e-05 $X=37200 $Y=165550 $D=16
M71 10 8 11 VDD P L=3.5e-07 W=1.56e-05 $X=39600 $Y=165550 $D=16
M72 11 8 10 VDD P L=3.5e-07 W=1.56e-05 $X=42000 $Y=165550 $D=16
M73 10 8 11 VDD P L=3.5e-07 W=1.56e-05 $X=44400 $Y=165550 $D=16
M74 pad 10 VDD VDD P L=3.5e-07 W=2e-05 $X=53330 $Y=97085 $D=16
M75 VDD 10 pad VDD P L=3.5e-07 W=2e-05 $X=53330 $Y=101995 $D=16
M76 pad 10 VDD VDD P L=3.5e-07 W=2e-05 $X=53330 $Y=103565 $D=16
M77 VDD 10 pad VDD P L=3.5e-07 W=2e-05 $X=53330 $Y=108475 $D=16
M78 pad 10 VDD VDD P L=3.5e-07 W=2e-05 $X=53330 $Y=110045 $D=16
M79 VDD 10 pad VDD P L=3.5e-07 W=2e-05 $X=53330 $Y=114955 $D=16
M80 pad 10 VDD VDD P L=3.5e-07 W=2e-05 $X=53330 $Y=116525 $D=16
M81 VDD 10 pad VDD P L=3.5e-07 W=2e-05 $X=53330 $Y=121435 $D=16
M82 pad 10 VDD VDD P L=3.5e-07 W=2e-05 $X=53330 $Y=123005 $D=16
M83 VDD 10 pad VDD P L=3.5e-07 W=2e-05 $X=53330 $Y=127915 $D=16
M84 12 pad VDD VDD P L=3.5e-07 W=1.56e-05 $X=59400 $Y=165550 $D=16
M85 VDD pad 12 VDD P L=3.5e-07 W=1.56e-05 $X=61800 $Y=165550 $D=16
M86 12 pad VDD VDD P L=3.5e-07 W=1.56e-05 $X=64200 $Y=165550 $D=16
M87 VDD pad 12 VDD P L=3.5e-07 W=1.56e-05 $X=66600 $Y=165550 $D=16
M88 12 pad VDD VDD P L=3.5e-07 W=1.56e-05 $X=69000 $Y=165550 $D=16
M89 VDD pad 12 VDD P L=3.5e-07 W=1.56e-05 $X=71400 $Y=165550 $D=16
M90 DataIn 12 VDD VDD P L=3.5e-07 W=1.56e-05 $X=73800 $Y=165550 $D=16
M91 VDD 12 DataIn VDD P L=3.5e-07 W=1.56e-05 $X=76200 $Y=165550 $D=16
M92 DataIn 12 VDD VDD P L=3.5e-07 W=1.56e-05 $X=78600 $Y=165550 $D=16
M93 VDD 12 DataIn VDD P L=3.5e-07 W=1.56e-05 $X=81000 $Y=165550 $D=16
M94 DataIn 12 VDD VDD P L=3.5e-07 W=1.56e-05 $X=83400 $Y=165550 $D=16
M95 VDD 12 DataIn VDD P L=3.5e-07 W=1.56e-05 $X=85800 $Y=165550 $D=16
.ENDS
***************************************
.SUBCKT ICV_15 1 2 3 4
** N=6 EP=4 IP=7 FDC=96
X0 1 4 2 3 1 pad_in $T=0 0 0 0 $X=-900 $Y=0
.ENDS
***************************************
.SUBCKT ICV_152 1 2 3 7
** N=9 EP=4 IP=7 FDC=96
X0 1 7 2 3 1 pad_in $T=0 413200 0 270 $X=0 $Y=322300
.ENDS
***************************************
.SUBCKT ICV_13 1 2 3 4
** N=6 EP=4 IP=7 FDC=96
X0 1 4 2 3 1 pad_in $T=0 0 0 0 $X=-900 $Y=0
.ENDS
***************************************
.SUBCKT pad_out VDD DataOut pad VSS 7
** N=26 EP=5 IP=1 FDC=96
M0 VSS VDD 8 7 N L=3.5e-07 W=9e-06 $X=5700 $Y=147100 $D=0
M1 9 8 VSS 7 N L=3.5e-07 W=9e-06 $X=8100 $Y=147100 $D=0
M2 VSS DataOut 11 7 N L=3.5e-07 W=9e-06 $X=13200 $Y=147100 $D=0
M3 11 DataOut VSS 7 N L=3.5e-07 W=9e-06 $X=15600 $Y=147100 $D=0
M4 pad 11 VSS VSS N L=3.5e-07 W=2e-05 $X=15770 $Y=191300 $D=0
M5 VSS 11 pad VSS N L=3.5e-07 W=2e-05 $X=15770 $Y=196210 $D=0
M6 pad 11 VSS VSS N L=3.5e-07 W=2e-05 $X=15770 $Y=197780 $D=0
M7 VSS 11 pad VSS N L=3.5e-07 W=2e-05 $X=15770 $Y=202690 $D=0
M8 pad 11 VSS VSS N L=3.5e-07 W=2e-05 $X=15770 $Y=204260 $D=0
M9 VSS 11 pad VSS N L=3.5e-07 W=2e-05 $X=15770 $Y=209170 $D=0
M10 pad 11 VSS VSS N L=3.5e-07 W=2e-05 $X=15770 $Y=210740 $D=0
M11 VSS 11 pad VSS N L=3.5e-07 W=2e-05 $X=15770 $Y=215650 $D=0
M12 pad 11 VSS VSS N L=3.5e-07 W=2e-05 $X=15770 $Y=217220 $D=0
M13 VSS 11 pad VSS N L=3.5e-07 W=2e-05 $X=15770 $Y=222130 $D=0
M14 VSS DataOut 11 7 N L=3.5e-07 W=9e-06 $X=18000 $Y=147100 $D=0
M15 11 DataOut VSS 7 N L=3.5e-07 W=9e-06 $X=20400 $Y=147100 $D=0
M16 VSS DataOut 11 7 N L=3.5e-07 W=9e-06 $X=22800 $Y=147100 $D=0
M17 11 8 VSS 7 N L=3.5e-07 W=9e-06 $X=25200 $Y=147100 $D=0
M18 VSS 8 11 7 N L=3.5e-07 W=9e-06 $X=27600 $Y=147100 $D=0
M19 11 8 VSS 7 N L=3.5e-07 W=9e-06 $X=30000 $Y=147100 $D=0
M20 VSS 8 11 7 N L=3.5e-07 W=9e-06 $X=32400 $Y=147100 $D=0
M21 11 8 VSS 7 N L=3.5e-07 W=9e-06 $X=34800 $Y=147100 $D=0
M22 10 9 11 7 N L=3.5e-07 W=9e-06 $X=37200 $Y=147100 $D=0
M23 11 9 10 7 N L=3.5e-07 W=9e-06 $X=39600 $Y=147100 $D=0
M24 10 9 11 7 N L=3.5e-07 W=9e-06 $X=42000 $Y=147100 $D=0
M25 11 9 10 7 N L=3.5e-07 W=9e-06 $X=44400 $Y=147100 $D=0
M26 pad 11 VSS VSS N L=3.5e-07 W=2e-05 $X=54230 $Y=191300 $D=0
M27 VSS 11 pad VSS N L=3.5e-07 W=2e-05 $X=54230 $Y=196210 $D=0
M28 pad 11 VSS VSS N L=3.5e-07 W=2e-05 $X=54230 $Y=197780 $D=0
M29 VSS 11 pad VSS N L=3.5e-07 W=2e-05 $X=54230 $Y=202690 $D=0
M30 pad 11 VSS VSS N L=3.5e-07 W=2e-05 $X=54230 $Y=204260 $D=0
M31 VSS 11 pad VSS N L=3.5e-07 W=2e-05 $X=54230 $Y=209170 $D=0
M32 pad 11 VSS VSS N L=3.5e-07 W=2e-05 $X=54230 $Y=210740 $D=0
M33 VSS 11 pad VSS N L=3.5e-07 W=2e-05 $X=54230 $Y=215650 $D=0
M34 pad 11 VSS VSS N L=3.5e-07 W=2e-05 $X=54230 $Y=217220 $D=0
M35 VSS 11 pad VSS N L=3.5e-07 W=2e-05 $X=54230 $Y=222130 $D=0
M36 12 pad VSS 7 N L=3.5e-07 W=9e-06 $X=59400 $Y=146950 $D=0
M37 VSS pad 12 7 N L=3.5e-07 W=9e-06 $X=61800 $Y=146950 $D=0
M38 12 pad VSS 7 N L=3.5e-07 W=9e-06 $X=64200 $Y=146950 $D=0
M39 VSS pad 12 7 N L=3.5e-07 W=9e-06 $X=66600 $Y=146950 $D=0
M40 12 pad VSS 7 N L=3.5e-07 W=9e-06 $X=69000 $Y=146950 $D=0
M41 VSS pad 12 7 N L=3.5e-07 W=9e-06 $X=71400 $Y=146950 $D=0
M42 13 12 VSS 7 N L=3.5e-07 W=9e-06 $X=73800 $Y=146950 $D=0
M43 VSS 12 13 7 N L=3.5e-07 W=9e-06 $X=76200 $Y=146950 $D=0
M44 13 12 VSS 7 N L=3.5e-07 W=9e-06 $X=78600 $Y=146950 $D=0
M45 VSS 12 13 7 N L=3.5e-07 W=9e-06 $X=81000 $Y=146950 $D=0
M46 13 12 VSS 7 N L=3.5e-07 W=9e-06 $X=83400 $Y=146950 $D=0
M47 VSS 12 13 7 N L=3.5e-07 W=9e-06 $X=85800 $Y=146950 $D=0
M48 VDD VDD 8 VDD P L=3.5e-07 W=1.56e-05 $X=5700 $Y=165550 $D=16
M49 9 8 VDD VDD P L=3.5e-07 W=1.56e-05 $X=8100 $Y=165550 $D=16
M50 VDD DataOut 10 VDD P L=3.5e-07 W=1.56e-05 $X=13200 $Y=165550 $D=16
M51 10 DataOut VDD VDD P L=3.5e-07 W=1.56e-05 $X=15600 $Y=165550 $D=16
M52 pad 10 VDD VDD P L=3.5e-07 W=2e-05 $X=15795 $Y=97085 $D=16
M53 VDD 10 pad VDD P L=3.5e-07 W=2e-05 $X=15795 $Y=101995 $D=16
M54 pad 10 VDD VDD P L=3.5e-07 W=2e-05 $X=15795 $Y=103565 $D=16
M55 VDD 10 pad VDD P L=3.5e-07 W=2e-05 $X=15795 $Y=108475 $D=16
M56 pad 10 VDD VDD P L=3.5e-07 W=2e-05 $X=15795 $Y=110045 $D=16
M57 VDD 10 pad VDD P L=3.5e-07 W=2e-05 $X=15795 $Y=114955 $D=16
M58 pad 10 VDD VDD P L=3.5e-07 W=2e-05 $X=15795 $Y=116525 $D=16
M59 VDD 10 pad VDD P L=3.5e-07 W=2e-05 $X=15795 $Y=121435 $D=16
M60 pad 10 VDD VDD P L=3.5e-07 W=2e-05 $X=15795 $Y=123005 $D=16
M61 VDD 10 pad VDD P L=3.5e-07 W=2e-05 $X=15795 $Y=127915 $D=16
M62 VDD DataOut 10 VDD P L=3.5e-07 W=1.56e-05 $X=18000 $Y=165550 $D=16
M63 10 DataOut VDD VDD P L=3.5e-07 W=1.56e-05 $X=20400 $Y=165550 $D=16
M64 VDD DataOut 10 VDD P L=3.5e-07 W=1.56e-05 $X=22800 $Y=165550 $D=16
M65 10 9 VDD VDD P L=3.5e-07 W=1.56e-05 $X=25200 $Y=165550 $D=16
M66 VDD 9 10 VDD P L=3.5e-07 W=1.56e-05 $X=27600 $Y=165550 $D=16
M67 10 9 VDD VDD P L=3.5e-07 W=1.56e-05 $X=30000 $Y=165550 $D=16
M68 VDD 9 10 VDD P L=3.5e-07 W=1.56e-05 $X=32400 $Y=165550 $D=16
M69 10 9 VDD VDD P L=3.5e-07 W=1.56e-05 $X=34800 $Y=165550 $D=16
M70 11 8 10 VDD P L=3.5e-07 W=1.56e-05 $X=37200 $Y=165550 $D=16
M71 10 8 11 VDD P L=3.5e-07 W=1.56e-05 $X=39600 $Y=165550 $D=16
M72 11 8 10 VDD P L=3.5e-07 W=1.56e-05 $X=42000 $Y=165550 $D=16
M73 10 8 11 VDD P L=3.5e-07 W=1.56e-05 $X=44400 $Y=165550 $D=16
M74 pad 10 VDD VDD P L=3.5e-07 W=2e-05 $X=53330 $Y=97085 $D=16
M75 VDD 10 pad VDD P L=3.5e-07 W=2e-05 $X=53330 $Y=101995 $D=16
M76 pad 10 VDD VDD P L=3.5e-07 W=2e-05 $X=53330 $Y=103565 $D=16
M77 VDD 10 pad VDD P L=3.5e-07 W=2e-05 $X=53330 $Y=108475 $D=16
M78 pad 10 VDD VDD P L=3.5e-07 W=2e-05 $X=53330 $Y=110045 $D=16
M79 VDD 10 pad VDD P L=3.5e-07 W=2e-05 $X=53330 $Y=114955 $D=16
M80 pad 10 VDD VDD P L=3.5e-07 W=2e-05 $X=53330 $Y=116525 $D=16
M81 VDD 10 pad VDD P L=3.5e-07 W=2e-05 $X=53330 $Y=121435 $D=16
M82 pad 10 VDD VDD P L=3.5e-07 W=2e-05 $X=53330 $Y=123005 $D=16
M83 VDD 10 pad VDD P L=3.5e-07 W=2e-05 $X=53330 $Y=127915 $D=16
M84 12 pad VDD VDD P L=3.5e-07 W=1.56e-05 $X=59400 $Y=165550 $D=16
M85 VDD pad 12 VDD P L=3.5e-07 W=1.56e-05 $X=61800 $Y=165550 $D=16
M86 12 pad VDD VDD P L=3.5e-07 W=1.56e-05 $X=64200 $Y=165550 $D=16
M87 VDD pad 12 VDD P L=3.5e-07 W=1.56e-05 $X=66600 $Y=165550 $D=16
M88 12 pad VDD VDD P L=3.5e-07 W=1.56e-05 $X=69000 $Y=165550 $D=16
M89 VDD pad 12 VDD P L=3.5e-07 W=1.56e-05 $X=71400 $Y=165550 $D=16
M90 13 12 VDD VDD P L=3.5e-07 W=1.56e-05 $X=73800 $Y=165550 $D=16
M91 VDD 12 13 VDD P L=3.5e-07 W=1.56e-05 $X=76200 $Y=165550 $D=16
M92 13 12 VDD VDD P L=3.5e-07 W=1.56e-05 $X=78600 $Y=165550 $D=16
M93 VDD 12 13 VDD P L=3.5e-07 W=1.56e-05 $X=81000 $Y=165550 $D=16
M94 13 12 VDD VDD P L=3.5e-07 W=1.56e-05 $X=83400 $Y=165550 $D=16
M95 VDD 12 13 VDD P L=3.5e-07 W=1.56e-05 $X=85800 $Y=165550 $D=16
.ENDS
***************************************
.SUBCKT ICV_151 1 2 3 4 7 8
** N=10 EP=6 IP=14 FDC=192
X0 1 7 2 3 1 pad_in $T=0 593200 0 270 $X=0 $Y=502300
X1 2 4 8 1 1 pad_out $T=0 683200 0 270 $X=0 $Y=592300
.ENDS
***************************************
.SUBCKT ICV_10 1 2 3 4
** N=6 EP=4 IP=7 FDC=96
X0 1 4 2 3 1 pad_in $T=0 0 0 0 $X=-900 $Y=0
.ENDS
***************************************
.SUBCKT ICV_150
** N=3 EP=0 IP=0 FDC=0
.ENDS
***************************************
.SUBCKT ICV_9 1 2 3 4
** N=6 EP=4 IP=7 FDC=96
X0 2 3 4 1 1 pad_out $T=0 0 0 0 $X=-900 $Y=0
.ENDS
***************************************
.SUBCKT ICV_149
** N=4 EP=0 IP=0 FDC=0
.ENDS
***************************************
.SUBCKT ICV_8 1 2 3 4
** N=6 EP=4 IP=7 FDC=96
X0 2 3 4 1 1 pad_out $T=0 0 0 0 $X=-900 $Y=0
.ENDS
***************************************
.SUBCKT ICV_148 1 2 3 4 6 7
** N=9 EP=6 IP=14 FDC=192
X0 2 4 6 1 1 pad_out $T=0 1043200 0 270 $X=0 $Y=952300
X1 2 3 7 1 1 pad_out $T=0 1133200 0 270 $X=0 $Y=1042300
.ENDS
***************************************
.SUBCKT ICV_147 1 2 3 4 6 7
** N=9 EP=6 IP=14 FDC=192
X0 2 3 6 1 1 pad_out $T=0 1223200 0 270 $X=0 $Y=1132300
X1 2 4 7 1 1 pad_out $T=0 1313200 0 270 $X=0 $Y=1222300
.ENDS
***************************************
.SUBCKT ICV_1 VSS VDD
** N=38 EP=2 IP=1 FDC=1
D0 VSS VDD pdio_m AREA=9e-10 PJ=0.00012 $X=8570 $Y=96300 $D=31
.ENDS
***************************************
.SUBCKT ICV_146
** N=3 EP=0 IP=0 FDC=0
.ENDS
***************************************
.SUBCKT ICV_4 1 2 3 4
** N=6 EP=4 IP=7 FDC=96
X0 2 3 4 1 1 pad_out $T=0 0 0 0 $X=-900 $Y=0
.ENDS
***************************************
.SUBCKT ICV_145
** N=6 EP=0 IP=7 FDC=0
.ENDS
***************************************
.SUBCKT ICV_3 1 2 3 4
** N=6 EP=4 IP=7 FDC=96
X0 1 4 2 3 1 pad_in $T=0 0 0 0 $X=-900 $Y=0
.ENDS
***************************************
.SUBCKT ICV_16 1 2 3 4
** N=7 EP=4 IP=7 FDC=96
X0 1 3 5 2 4 pad_in $T=0 0 0 0 $X=-900 $Y=0
.ENDS
***************************************
.SUBCKT ICV_144 3 4 5 7 8 9 10 11 12 13 14 15 16 18 19 20 21 22 23 24
+ 25 26 27 28 29
** N=82 EP=25 IP=91 FDC=1152
X1 30 18 43 3 16 pad_in $T=336060 0 0 0 $X=335160 $Y=0
X2 31 19 44 4 16 pad_in $T=432490 0 0 0 $X=431590 $Y=0
X3 32 20 45 5 16 pad_in $T=528920 0 0 0 $X=528020 $Y=0
X4 33 21 46 8 16 pad_in $T=721775 0 0 0 $X=720875 $Y=0
X5 47 7 22 34 16 pad_out $T=625350 0 0 0 $X=624450 $Y=0
X6 48 9 23 35 16 pad_out $T=818200 0 0 0 $X=817300 $Y=0
X7 49 10 24 36 16 pad_out $T=914625 0 0 0 $X=913725 $Y=0
X8 50 11 25 37 16 pad_out $T=1011050 0 0 0 $X=1010150 $Y=0
X9 51 12 26 38 16 pad_out $T=1107480 0 0 0 $X=1106580 $Y=0
X10 52 13 27 39 16 pad_out $T=1203910 0 0 0 $X=1203010 $Y=0
X11 53 14 28 40 16 pad_out $T=1300340 0 0 0 $X=1299440 $Y=0
X12 54 15 29 41 16 pad_out $T=1396770 0 0 0 $X=1395870 $Y=0
*.CALIBRE WARNING SCONNECT SCONNECT conflict(s) detected by extraction in this cell. See extraction report for details.
.ENDS
***************************************
.SUBCKT FILL32
** N=8 EP=0 IP=0 FDC=0
.ENDS
***************************************
.SUBCKT ICV_19
** N=4 EP=0 IP=8 FDC=0
.ENDS
***************************************
.SUBCKT ICV_28
** N=5 EP=0 IP=8 FDC=0
.ENDS
***************************************
.SUBCKT ICV_36
** N=7 EP=0 IP=10 FDC=0
.ENDS
***************************************
.SUBCKT ICV_32
** N=5 EP=0 IP=8 FDC=0
.ENDS
***************************************
.SUBCKT ICV_33
** N=5 EP=0 IP=10 FDC=0
.ENDS
***************************************
.SUBCKT ICV_37
** N=7 EP=0 IP=17 FDC=0
.ENDS
***************************************
.SUBCKT ICV_39
** N=11 EP=0 IP=14 FDC=0
.ENDS
***************************************
.SUBCKT ICV_40
** N=19 EP=0 IP=22 FDC=0
.ENDS
***************************************
.SUBCKT ICV_41
** N=35 EP=0 IP=38 FDC=0
.ENDS
***************************************
.SUBCKT ICV_31
** N=4 EP=0 IP=8 FDC=0
.ENDS
***************************************
.SUBCKT ICV_34
** N=6 EP=0 IP=9 FDC=0
.ENDS
***************************************
.SUBCKT ICV_35
** N=6 EP=0 IP=15 FDC=0
.ENDS
***************************************
.SUBCKT ICV_142
** N=6 EP=0 IP=12 FDC=0
.ENDS
***************************************
.SUBCKT FILL8
** N=8 EP=0 IP=0 FDC=0
.ENDS
***************************************
.SUBCKT FILL4
** N=4 EP=0 IP=0 FDC=0
.ENDS
***************************************
.SUBCKT FILL2
** N=4 EP=0 IP=0 FDC=0
.ENDS
***************************************
.SUBCKT FILL1
** N=4 EP=0 IP=0 FDC=0
.ENDS
***************************************
.SUBCKT TIE0 VSS VDD Z
** N=6 EP=3 IP=0 FDC=2
M0 Z 6 VSS VSS N L=1.8e-07 W=6e-07 $X=1055 $Y=740 $D=0
M1 VDD 6 6 VDD P L=1.8e-07 W=8.8e-07 $X=1055 $Y=2300 $D=16
.ENDS
***************************************
.SUBCKT ICV_18
** N=4 EP=0 IP=8 FDC=0
.ENDS
***************************************
.SUBCKT ICV_29
** N=5 EP=0 IP=13 FDC=0
.ENDS
***************************************
.SUBCKT ICV_30
** N=7 EP=0 IP=10 FDC=0
.ENDS
***************************************
.SUBCKT FILL16
** N=8 EP=0 IP=0 FDC=0
.ENDS
***************************************
.SUBCKT ICV_143 1 2 19
** N=85 EP=3 IP=1142 FDC=100
X0 21 19 23 22 1 pad_in $T=1726400 336060 0 90 $X=1492300 $Y=335160
X83 1 2 24 TIE0 $T=763840 328160 0 0 $X=763410 $Y=327770
X84 1 2 22 TIE0 $T=1470560 414400 1 0 $X=1470130 $Y=409845
*.CALIBRE WARNING SCONNECT SCONNECT conflict(s) detected by extraction in this cell. See extraction report for details.
.ENDS
***************************************
.SUBCKT ICV_55
** N=4 EP=0 IP=8 FDC=0
.ENDS
***************************************
.SUBCKT ICV_65
** N=4 EP=0 IP=8 FDC=0
.ENDS
***************************************
.SUBCKT ICV_67
** N=4 EP=0 IP=8 FDC=0
.ENDS
***************************************
.SUBCKT ICV_123
** N=5 EP=0 IP=10 FDC=0
.ENDS
***************************************
.SUBCKT ICV_132
** N=7 EP=0 IP=10 FDC=0
.ENDS
***************************************
.SUBCKT ICV_120
** N=7 EP=0 IP=10 FDC=0
.ENDS
***************************************
.SUBCKT ICV_133
** N=7 EP=0 IP=14 FDC=0
.ENDS
***************************************
.SUBCKT ICV_134
** N=11 EP=0 IP=14 FDC=0
.ENDS
***************************************
.SUBCKT ICV_137
** N=19 EP=0 IP=22 FDC=0
.ENDS
***************************************
.SUBCKT ICV_139
** N=27 EP=0 IP=30 FDC=0
.ENDS
***************************************
.SUBCKT ICV_140
** N=27 EP=0 IP=54 FDC=0
.ENDS
***************************************
.SUBCKT TIE1 VSS Z VDD
** N=7 EP=3 IP=0 FDC=2
M0 6 6 VSS VSS N L=1.8e-07 W=6e-07 $X=1055 $Y=740 $D=0
M1 VDD 6 Z VDD P L=1.8e-07 W=8.8e-07 $X=1055 $Y=2300 $D=16
.ENDS
***************************************
.SUBCKT ICV_141 1 2 11 25
** N=87 EP=4 IP=790 FDC=100
X0 28 25 29 11 1 pad_in $T=1726400 528920 0 90 $X=1492300 $Y=528020
X15 1 2 30 TIE0 $T=470960 484960 0 0 $X=470530 $Y=484570
X83 1 31 2 TIE1 $T=529200 602560 1 0 $X=528770 $Y=598005
*.CALIBRE WARNING SCONNECT SCONNECT conflict(s) detected by extraction in this cell. See extraction report for details.
.ENDS
***************************************
.SUBCKT INVX2 A VSS VDD Z
** N=6 EP=4 IP=0 FDC=2
M0 Z A VSS VSS N L=1.8e-07 W=4.4e-07 $X=740 $Y=740 $D=0
M1 Z A VDD VDD P L=1.8e-07 W=8.8e-07 $X=740 $Y=2300 $D=16
.ENDS
***************************************
.SUBCKT XOR2X1 B A VDD VSS Z
** N=11 EP=5 IP=0 FDC=10
M0 VSS B 10 VSS N L=1.8e-07 W=4.4e-07 $X=630 $Y=985 $D=0
M1 8 A VSS VSS N L=1.8e-07 W=4.4e-07 $X=1350 $Y=985 $D=0
M2 9 8 10 VSS N L=1.8e-07 W=4.4e-07 $X=3205 $Y=1000 $D=0
M3 B A 9 VSS N L=1.8e-07 W=4.4e-07 $X=3925 $Y=1000 $D=0
M4 Z 9 VSS VSS N L=1.8e-07 W=4.4e-07 $X=5345 $Y=1000 $D=0
M5 VDD B 10 VDD P L=1.8e-07 W=4.4e-07 $X=630 $Y=2435 $D=16
M6 8 A VDD VDD P L=1.8e-07 W=4.4e-07 $X=1350 $Y=2435 $D=16
M7 9 A 10 VDD P L=1.8e-07 W=4.4e-07 $X=3205 $Y=2435 $D=16
M8 B 8 9 VDD P L=1.8e-07 W=4.4e-07 $X=3925 $Y=2435 $D=16
M9 Z 9 VDD VDD P L=1.8e-07 W=4.4e-07 $X=5345 $Y=2435 $D=16
.ENDS
***************************************
.SUBCKT NAND2X1 A B VSS VDD Z
** N=9 EP=5 IP=0 FDC=4
M0 9 A VSS VSS N L=1.8e-07 W=4.4e-07 $X=985 $Y=745 $D=0
M1 Z B 9 VSS N L=1.8e-07 W=4.4e-07 $X=1705 $Y=745 $D=0
M2 Z A VDD VDD P L=1.8e-07 W=4.4e-07 $X=985 $Y=2670 $D=16
M3 VDD B Z VDD P L=1.8e-07 W=4.4e-07 $X=1705 $Y=2670 $D=16
.ENDS
***************************************
.SUBCKT ICV_43
** N=4 EP=0 IP=8 FDC=0
.ENDS
***************************************
.SUBCKT OR2X1 A B VSS VDD Z
** N=12 EP=5 IP=0 FDC=6
M0 8 A VSS VSS N L=1.8e-07 W=2.2e-07 $X=835 $Y=760 $D=0
M1 VSS B 8 VSS N L=1.8e-07 W=2.2e-07 $X=1635 $Y=760 $D=0
M2 Z 8 VSS VSS N L=1.8e-07 W=2.2e-07 $X=2435 $Y=760 $D=0
M3 9 A 8 VDD P L=1.8e-07 W=8.8e-07 $X=835 $Y=2300 $D=16
M4 VDD B 9 VDD P L=1.8e-07 W=8.8e-07 $X=1555 $Y=2300 $D=16
M5 Z 8 VDD VDD P L=1.8e-07 W=4.4e-07 $X=2315 $Y=2520 $D=16
.ENDS
***************************************
.SUBCKT NAND3X1 A B C VSS VDD Z
** N=10 EP=6 IP=0 FDC=6
M0 9 A VSS VSS N L=1.8e-07 W=6.6e-07 $X=1210 $Y=745 $D=0
M1 10 B 9 VSS N L=1.8e-07 W=6.6e-07 $X=1930 $Y=745 $D=0
M2 Z C 10 VSS N L=1.8e-07 W=6.6e-07 $X=2650 $Y=745 $D=0
M3 Z A VDD VDD P L=1.8e-07 W=4.4e-07 $X=1210 $Y=2670 $D=16
M4 VDD B Z VDD P L=1.8e-07 W=4.4e-07 $X=1930 $Y=2670 $D=16
M5 Z C VDD VDD P L=1.8e-07 W=4.4e-07 $X=2650 $Y=2670 $D=16
.ENDS
***************************************
.SUBCKT NOR2X1 A B VSS VDD Z
** N=10 EP=5 IP=0 FDC=4
M0 Z A VSS VSS N L=1.8e-07 W=2.2e-07 $X=925 $Y=760 $D=0
M1 VSS B Z VSS N L=1.8e-07 W=2.2e-07 $X=1725 $Y=760 $D=0
M2 8 A VDD VDD P L=1.8e-07 W=8.8e-07 $X=925 $Y=2300 $D=16
M3 Z B 8 VDD P L=1.8e-07 W=8.8e-07 $X=1645 $Y=2300 $D=16
.ENDS
***************************************
.SUBCKT DFFQX1 CLK Q VDD D VSS
** N=16 EP=5 IP=0 FDC=18
M0 8 CLK VSS VSS N L=1.8e-07 W=2.2e-07 $X=870 $Y=750 $D=0
M1 9 8 D VSS N L=1.8e-07 W=2.2e-07 $X=2370 $Y=750 $D=0
M2 VSS 9 10 VSS N L=1.8e-07 W=2.2e-07 $X=3960 $Y=750 $D=0
M3 12 10 VSS VSS N L=1.8e-07 W=2.2e-07 $X=5720 $Y=750 $D=0
M4 9 CLK 12 VSS N L=1.8e-07 W=2.2e-07 $X=6755 $Y=750 $D=0
M5 11 CLK 10 VSS N L=1.8e-07 W=2.2e-07 $X=8440 $Y=750 $D=0
M6 13 8 11 VSS N L=1.8e-07 W=2.2e-07 $X=9640 $Y=750 $D=0
M7 VSS Q 13 VSS N L=1.8e-07 W=2.2e-07 $X=10440 $Y=750 $D=0
M8 Q 11 VSS VSS N L=1.8e-07 W=2.2e-07 $X=11240 $Y=750 $D=0
M9 8 CLK VDD VDD P L=1.8e-07 W=4.4e-07 $X=870 $Y=2670 $D=16
M10 9 CLK D VDD P L=1.8e-07 W=4.4e-07 $X=2460 $Y=2670 $D=16
M11 VDD 9 10 VDD P L=1.8e-07 W=4.4e-07 $X=3960 $Y=2670 $D=16
M12 12 10 VDD VDD P L=1.8e-07 W=4.4e-07 $X=5460 $Y=2670 $D=16
M13 9 8 12 VDD P L=1.8e-07 W=4.4e-07 $X=6180 $Y=2670 $D=16
M14 11 8 10 VDD P L=1.8e-07 W=4.4e-07 $X=7980 $Y=2670 $D=16
M15 13 CLK 11 VDD P L=1.8e-07 W=4.4e-07 $X=9780 $Y=2670 $D=16
M16 VDD Q 13 VDD P L=1.8e-07 W=4.4e-07 $X=10500 $Y=2670 $D=16
M17 Q 11 VDD VDD P L=1.8e-07 W=4.4e-07 $X=11220 $Y=2670 $D=16
.ENDS
***************************************
.SUBCKT INVX1 A VSS VDD Z
** N=6 EP=4 IP=0 FDC=2
M0 Z A VSS VSS N L=1.8e-07 W=2.2e-07 $X=740 $Y=760 $D=0
M1 Z A VDD VDD P L=1.8e-07 W=4.4e-07 $X=740 $Y=2715 $D=16
.ENDS
***************************************
.SUBCKT ICV_136
** N=4 EP=0 IP=8 FDC=0
.ENDS
***************************************
.SUBCKT ICV_138 1 2 3 4 5 6 7 8 9 10 11 12 13 14 15 16 17 18 19 20
+ 21 22 23 24 25 26 27 28 29 30 31 32 33 34 35 36 53 60
** N=132 EP=38 IP=1400 FDC=398
X0 63 60 103 53 1 pad_in $T=1726400 721775 0 90 $X=1492300 $Y=720875
X157 3 1 2 65 INVX2 $T=787360 806400 1 0 $X=786930 $Y=801845
X158 74 1 2 69 INVX2 $T=808080 798560 1 180 $X=805970 $Y=798170
X159 13 1 2 73 INVX2 $T=820400 806400 1 180 $X=818290 $Y=806010
X160 67 4 2 1 64 XOR2X1 $T=794080 798560 1 180 $X=787490 $Y=798170
X161 31 101 2 1 30 XOR2X1 $T=899920 806400 1 180 $X=893330 $Y=806010
X162 64 65 1 2 66 NAND2X1 $T=787920 806400 0 0 $X=787490 $Y=806010
X163 68 66 1 2 5 NAND2X1 $T=795200 806400 1 180 $X=791970 $Y=806010
X164 4 65 1 2 6 NAND2X1 $T=798560 806400 0 180 $X=795330 $Y=801845
X165 74 14 1 2 78 NAND2X1 $T=819280 806400 1 0 $X=818850 $Y=801845
X166 12 14 1 2 79 NAND2X1 $T=821520 806400 0 0 $X=821090 $Y=806010
X167 79 81 1 2 80 NAND2X1 $T=824320 806400 1 0 $X=823890 $Y=801845
X168 13 14 1 2 83 NAND2X1 $T=826000 806400 0 0 $X=825570 $Y=806010
X169 78 84 1 2 82 NAND2X1 $T=828240 806400 1 0 $X=827810 $Y=801845
X170 83 17 1 2 16 NAND2X1 $T=829920 806400 0 0 $X=829490 $Y=806010
X171 87 86 1 2 85 NAND2X1 $T=835520 798560 1 180 $X=832290 $Y=798170
X172 19 18 1 2 86 NAND2X1 $T=835520 806400 0 180 $X=832290 $Y=801845
X173 88 14 1 2 87 NAND2X1 $T=839440 806400 0 180 $X=836210 $Y=801845
X174 90 91 1 2 89 NAND2X1 $T=841120 806400 1 0 $X=840690 $Y=801845
X175 92 14 1 2 90 NAND2X1 $T=847840 806400 0 180 $X=844610 $Y=801845
X176 19 18 1 2 91 NAND2X1 $T=849520 806400 0 0 $X=849090 $Y=806010