************************************************************************
* auCdl Netlist:
* 
* Library Name:  16bitcpu
* Top Cell Name: sixteenbitcpu_top_pads
* View Name:     schematic
* Netlisted on:  Dec  4 21:32:24 2022
************************************************************************

.INCLUDE  /research/ece/lnis-teaching/Designkits/tsmc180nm/pdk/tsmc18/../Calibre/lvs/source.added
*.EQUATION
*.SCALE METER
*.MEGA
.PARAM



************************************************************************
* Library Name: SC_LIB
* Cell Name:    TIE0
* View Name:    schematic
************************************************************************

.SUBCKT TIE0 VDD VSS Z
*.PININFO Z:O VDD:B VSS:B
MM0 Z net1 VSS VSS N l=180.0n w=600n m=1
MM1 net1 net1 VDD VDD P l=180.0n w=880.0n m=1
.ENDS

************************************************************************
* Library Name: SC_LIB
* Cell Name:    TIE1
* View Name:    schematic
************************************************************************

.SUBCKT TIE1 VDD VSS Z
*.PININFO Z:O VDD:B VSS:B
MM0 net3 net3 VSS VSS N l=180.0n w=600n m=1
MM1 Z net3 VDD VDD P l=180.0n w=880.0n m=1
.ENDS

************************************************************************
* Library Name: SC_LIB
* Cell Name:    INVX1
* View Name:    schematic
************************************************************************

.SUBCKT INVX1 A VDD VSS Z
*.PININFO A:I Z:O VDD:B VSS:B
MM2 Z A VSS VSS N l=180.0n w=220.0n m=1
MM0 Z A VDD VDD P l=180.0n w=440.0n m=1
.ENDS

************************************************************************
* Library Name: SC_LIB
* Cell Name:    NAND3X1
* View Name:    schematic
************************************************************************

.SUBCKT NAND3X1 A B C VDD VSS Z
*.PININFO A:I B:I C:I Z:O VDD:B VSS:B
MM5 net10 C VSS VSS N l=180.0n w=660.0n m=1
MM1 net13 B net10 VSS N l=180.0n w=660.0n m=1
MM0 Z A net13 VSS N l=180.0n w=660.0n m=1
MM4 Z C VDD VDD P l=180.0n w=440.0n m=1
MM3 Z A VDD VDD P l=180.0n w=440.0n m=1
MM2 Z B VDD VDD P l=180.0n w=440.0n m=1
.ENDS

************************************************************************
* Library Name: SC_LIB
* Cell Name:    AND2X1
* View Name:    schematic
************************************************************************

.SUBCKT AND2X1 A B VDD VSS Z
*.PININFO A:I B:I Z:O VDD:B VSS:B
MM4 Z net4 VSS VSS N l=180.0n w=220.0n m=1
MM1 net14 B VSS VSS N l=180.0n w=440.0n m=1
MM0 net4 A net14 VSS N l=180.0n w=440.0n m=1
MM5 Z net4 VDD VDD P l=180.0n w=440.0n m=1
MM3 net4 A VDD VDD P l=180.0n w=440.0n m=1
MM2 net4 B VDD VDD P l=180.0n w=440.0n m=1
.ENDS

************************************************************************
* Library Name: SC_LIB
* Cell Name:    NOR2X1
* View Name:    schematic
************************************************************************

.SUBCKT NOR2X1 A B VDD VSS Z
*.PININFO A:I B:I Z:O VDD:B VSS:B
MM7 Z A VSS VSS N l=180.0n w=220.0n m=1
MM4 Z B VSS VSS N l=180.0n w=220.0n m=1
MM6 net9 A VDD VDD P l=180.0n w=880.0n m=1
MM5 Z B net9 VDD P l=180.0n w=880.0n m=1
.ENDS

************************************************************************
* Library Name: SC_LIB
* Cell Name:    NAND2X1
* View Name:    schematic
************************************************************************

.SUBCKT NAND2X1 A B VDD VSS Z
*.PININFO A:I B:I Z:O VDD:B VSS:B
MM1 net9 B VSS VSS N l=180.0n w=440.0n m=1
MM0 Z A net9 VSS N l=180.0n w=440.0n m=1
MM3 Z A VDD VDD P l=180.0n w=440.0n m=1
MM2 Z B VDD VDD P l=180.0n w=440.0n m=1
.ENDS

************************************************************************
* Library Name: SC_LIB
* Cell Name:    MUX2X1
* View Name:    schematic
************************************************************************

.SUBCKT MUX2X1 A B S VDD VSS Z
*.PININFO A:I B:I S:I Z:O VDD:B VSS:B
MM13 SB S VSS VSS N l=180.0n w=440.0n m=1
MM0 Z net2 VSS VSS N l=180.0n w=440.0n m=1
MM7 net2 SB net21 VSS N l=180.0n w=440.0n m=1
MM8 net21 A VSS VSS N l=180.0n w=440.0n m=1
MM9 net22 B VSS VSS N l=180.0n w=440.0n m=1
MM11 net2 S net22 VSS N l=180.0n w=440.0n m=1
MM14 SB S VDD VDD P l=180.0n w=440.0n m=1
MM1 Z net2 VDD VDD P l=180.0n w=440.0n m=1
MM6 net20 A VDD VDD P l=180.0n w=440.0n m=1
MM5 net2 S net20 VDD P l=180.0n w=440.0n m=1
MM10 net23 B VDD VDD P l=180.0n w=440.0n m=1
MM12 net2 SB net23 VDD P l=180.0n w=440.0n m=1
.ENDS

************************************************************************
* Library Name: SC_LIB
* Cell Name:    OR2X1
* View Name:    schematic
************************************************************************

.SUBCKT OR2X1 A B VDD VSS Z
*.PININFO A:I B:I Z:O VDD:B VSS:B
MM7 net8 A VSS VSS N l=180.0n w=220.0n m=1
MM4 net8 B VSS VSS N l=180.0n w=220.0n m=1
MM0 Z net8 VSS VSS N l=180.0n w=220.0n m=1
MM6 net12 A VDD VDD P l=180.0n w=880.0n m=1
MM5 net8 B net12 VDD P l=180.0n w=880.0n m=1
MM1 Z net8 VDD VDD P l=180.0n w=440.0n m=1
.ENDS

************************************************************************
* Library Name: SC_LIB
* Cell Name:    XOR2X1
* View Name:    schematic
************************************************************************

.SUBCKT XOR2X1 A B VDD VSS Z
*.PININFO A:I B:I Z:O VDD:B VSS:B
MM11 net3 A B VSS N l=180.0n w=440.0n m=1
MM10 net3 AB BB VSS N l=180.0n w=440.0n m=1
MM12 BB B VSS VSS N l=180.0n w=440.0n m=1
MM13 Z net3 VSS VSS N l=180.0n w=440.0n m=1
MM0 AB A VSS VSS N l=180.0n w=440.0n m=1
MM3 B AB net3 VDD P l=180.0n w=440.0n m=1
MM2 BB A net3 VDD P l=180.0n w=440.0n m=1
MM1 AB A VDD VDD P l=180.0n w=440.0n m=1
MM4 BB B VDD VDD P l=180.0n w=440.0n m=1
MM5 Z net3 VDD VDD P l=180.0n w=440.0n m=1
.ENDS

************************************************************************
* Library Name: SC_LIB
* Cell Name:    INVX4
* View Name:    schematic
************************************************************************

.SUBCKT INVX4 A VDD VSS Z
*.PININFO A:I Z:O VDD:B VSS:B
MM0 Z A VSS VSS N l=180.0n w=880.0n m=1
MM1 Z A VDD VDD P l=180.0n w=1.76u m=1
.ENDS

************************************************************************
* Library Name: SC_LIB
* Cell Name:    INVX2
* View Name:    schematic
************************************************************************

.SUBCKT INVX2 A VDD VSS Z
*.PININFO A:I Z:O VDD:B VSS:B
MM0 Z A VSS VSS N l=180.0n w=440.0n m=1
MM1 Z A VDD VDD P l=180.0n w=880.0n m=1
.ENDS

************************************************************************
* Library Name: 16bitcpu
* Cell Name:    ALU_WIDTH16_DW01_add_0
* View Name:    schematic
************************************************************************

.SUBCKT ALU_WIDTH16_DW01_add_0 A<15> A<14> A<13> A<12> A<11> A<10> A<9> A<8> 
+ A<7> A<6> A<5> A<4> A<3> A<2> A<1> A<0> B<15> B<14> B<13> B<12> B<11> B<10> 
+ B<9> B<8> B<7> B<6> B<5> B<4> B<3> B<2> B<1> B<0> CI CO SUM<15> SUM<14> 
+ SUM<13> SUM<12> SUM<11> SUM<10> SUM<9> SUM<8> SUM<7> SUM<6> SUM<5> SUM<4> 
+ SUM<3> SUM<2> SUM<1> SUM<0> VDD VSS p1 p2 p3 p4
*.PININFO A<15>:I A<14>:I A<13>:I A<12>:I A<11>:I A<10>:I A<9>:I A<8>:I A<7>:I 
*.PININFO A<6>:I A<5>:I A<4>:I A<3>:I A<2>:I A<1>:I A<0>:I B<15>:I B<14>:I 
*.PININFO B<13>:I B<12>:I B<11>:I B<10>:I B<9>:I B<8>:I B<7>:I B<6>:I B<5>:I 
*.PININFO B<4>:I B<3>:I B<2>:I B<1>:I B<0>:I CI:I p1:I p2:I p3:I p4:I CO:O 
*.PININFO SUM<15>:O SUM<14>:O SUM<13>:O SUM<12>:O SUM<11>:O SUM<10>:O SUM<9>:O 
*.PININFO SUM<8>:O SUM<7>:O SUM<6>:O SUM<5>:O SUM<4>:O SUM<3>:O SUM<2>:O 
*.PININFO SUM<1>:O SUM<0>:O VDD:B VSS:B
XU15 n15 n9 VDD VSS SUM<9> / XOR2X1
XU16 n4 B<9> VDD VSS n15 / XOR2X1
XU17 n16 n17 VDD VSS SUM<8> / XOR2X1
XU18 B<8> A<8> VDD VSS n17 / XOR2X1
XU19 n18 n10 VDD VSS SUM<7> / XOR2X1
XU20 p2 B<7> VDD VSS n18 / XOR2X1
XU21 n19 n20 VDD VSS SUM<6> / XOR2X1
XU22 B<6> A<6> VDD VSS n20 / XOR2X1
XU23 n21 n11 VDD VSS SUM<5> / XOR2X1
XU24 n2 B<5> VDD VSS n21 / XOR2X1
XU25 n22 n23 VDD VSS SUM<4> / XOR2X1
XU26 B<4> A<4> VDD VSS n23 / XOR2X1
XU27 n24 n12 VDD VSS SUM<3> / XOR2X1
XU28 p1 B<3> VDD VSS n24 / XOR2X1
XU29 n25 n26 VDD VSS SUM<2> / XOR2X1
XU30 B<2> A<2> VDD VSS n26 / XOR2X1
XU31 n27 n13 VDD VSS SUM<1> / XOR2X1
XU32 n1 B<1> VDD VSS n27 / XOR2X1
XU33 n28 n29 VDD VSS SUM<15> / XOR2X1
XU34 B<15> A<15> VDD VSS n29 / XOR2X1
XU39 n33 n34 VDD VSS SUM<14> / XOR2X1
XU40 B<14> A<14> VDD VSS n34 / XOR2X1
XU45 n39 n7 VDD VSS SUM<13> / XOR2X1
XU50 p4 B<13> VDD VSS n39 / XOR2X1
XU51 n43 n44 VDD VSS SUM<12> / XOR2X1
XU52 B<12> A<12> VDD VSS n44 / XOR2X1
XU57 n49 n8 VDD VSS SUM<11> / XOR2X1
XU62 p3 B<11> VDD VSS n49 / XOR2X1
XU63 n53 n54 VDD VSS SUM<10> / XOR2X1
XU64 B<10> A<10> VDD VSS n54 / XOR2X1
XU105 A<0> n90 VDD VSS SUM<0> / XOR2X1
XU106 CI B<0> VDD VSS n90 / XOR2X1
XU35 n30 n31 VDD VSS n28 / NAND2X1
XU36 B<14> n32 VDD VSS n31 / NAND2X1
XU38 A<14> n33 VDD VSS n30 / NAND2X1
XU41 n35 n36 VDD VSS n33 / NAND2X1
XU42 B<13> n37 VDD VSS n36 / NAND2X1
XU43 n7 p4 VDD VSS n37 / NAND2X1
XU44 A<13> n38 VDD VSS n35 / NAND2X1
XU46 n40 n41 VDD VSS n38 / NAND2X1
XU47 B<12> n42 VDD VSS n41 / NAND2X1
XU49 A<12> n43 VDD VSS n40 / NAND2X1
XU53 n45 n46 VDD VSS n43 / NAND2X1
XU54 B<11> n47 VDD VSS n46 / NAND2X1
XU55 n8 p3 VDD VSS n47 / NAND2X1
XU56 A<11> n48 VDD VSS n45 / NAND2X1
XU58 n50 n51 VDD VSS n48 / NAND2X1
XU59 B<10> n52 VDD VSS n51 / NAND2X1
XU61 A<10> n53 VDD VSS n50 / NAND2X1
XU65 n55 n56 VDD VSS n53 / NAND2X1
XU66 B<9> n57 VDD VSS n56 / NAND2X1
XU67 n9 n4 VDD VSS n57 / NAND2X1
XU68 A<9> n58 VDD VSS n55 / NAND2X1
XU69 n59 n60 VDD VSS n58 / NAND2X1
XU70 B<8> n61 VDD VSS n60 / NAND2X1
XU72 A<8> n16 VDD VSS n59 / NAND2X1
XU73 n62 n63 VDD VSS n16 / NAND2X1
XU74 B<7> n64 VDD VSS n63 / NAND2X1
XU75 n10 p2 VDD VSS n64 / NAND2X1
XU76 A<7> n65 VDD VSS n62 / NAND2X1
XU77 n66 n67 VDD VSS n65 / NAND2X1
XU78 B<6> n68 VDD VSS n67 / NAND2X1
XU80 A<6> n19 VDD VSS n66 / NAND2X1
XU81 n69 n70 VDD VSS n19 / NAND2X1
XU82 B<5> n71 VDD VSS n70 / NAND2X1
XU83 n11 n2 VDD VSS n71 / NAND2X1
XU84 A<5> n72 VDD VSS n69 / NAND2X1
XU85 n73 n74 VDD VSS n72 / NAND2X1
XU86 B<4> n75 VDD VSS n74 / NAND2X1
XU88 A<4> n22 VDD VSS n73 / NAND2X1
XU89 n76 n77 VDD VSS n22 / NAND2X1
XU90 B<3> n78 VDD VSS n77 / NAND2X1
XU91 n12 p1 VDD VSS n78 / NAND2X1
XU92 A<3> n79 VDD VSS n76 / NAND2X1
XU93 n80 n81 VDD VSS n79 / NAND2X1
XU94 B<2> n82 VDD VSS n81 / NAND2X1
XU96 A<2> n25 VDD VSS n80 / NAND2X1
XU97 n83 n84 VDD VSS n25 / NAND2X1
XU98 B<1> n85 VDD VSS n84 / NAND2X1
XU99 n13 n1 VDD VSS n85 / NAND2X1
XU100 A<1> n86 VDD VSS n83 / NAND2X1
XU101 n87 n88 VDD VSS n86 / NAND2X1
XU102 CI n89 VDD VSS n88 / NAND2X1
XU104 B<0> A<0> VDD VSS n87 / NAND2X1
XU37 n33 A<14> VDD VSS n32 / OR2X1
XU48 n43 A<12> VDD VSS n42 / OR2X1
XU60 n53 A<10> VDD VSS n52 / OR2X1
XU71 n16 A<8> VDD VSS n61 / OR2X1
XU79 n19 A<6> VDD VSS n68 / OR2X1
XU87 n22 A<4> VDD VSS n75 / OR2X1
XU95 n25 A<2> VDD VSS n82 / OR2X1
XU103 B<0> A<0> VDD VSS n89 / OR2X1
XU4 A<1> VDD VSS n1 / INVX2
XU5 A<5> VDD VSS n2 / INVX2
XU6 A<9> VDD VSS n4 / INVX2
XU7 n38 VDD VSS n7 / INVX2
XU8 n48 VDD VSS n8 / INVX2
XU9 n58 VDD VSS n9 / INVX2
XU10 n65 VDD VSS n10 / INVX2
XU11 n72 VDD VSS n11 / INVX2
XU12 n79 VDD VSS n12 / INVX2
XU13 n86 VDD VSS n13 / INVX2
.ENDS

************************************************************************
* Library Name: 16bitcpu
* Cell Name:    ALU_WIDTH16_DW_cmp_1
* View Name:    schematic
************************************************************************

.SUBCKT ALU_WIDTH16_DW_cmp_1 A<15> A<14> A<13> A<12> A<11> A<10> A<9> A<8> 
+ A<7> A<6> A<5> A<4> A<3> A<2> A<1> A<0> B<15> B<14> B<13> B<12> B<11> B<10> 
+ B<9> B<8> B<7> B<6> B<5> B<4> B<3> B<2> B<1> B<0> EQ_NE GE_GT_EQ GE_LT 
+ GE_LT_GT_LE TC VDD VSS
*.PININFO A<15>:I A<14>:I A<13>:I A<12>:I A<11>:I A<10>:I A<9>:I A<8>:I A<7>:I 
*.PININFO A<6>:I A<5>:I A<4>:I A<3>:I A<2>:I A<1>:I A<0>:I B<15>:I B<14>:I 
*.PININFO B<13>:I B<12>:I B<11>:I B<10>:I B<9>:I B<8>:I B<7>:I B<6>:I B<5>:I 
*.PININFO B<4>:I B<3>:I B<2>:I B<1>:I B<0>:I GE_GT_EQ:I GE_LT:I TC:I EQ_NE:O 
*.PININFO GE_LT_GT_LE:O VDD:B VSS:B
XU383 n696 n697 VDD VSS GE_LT_GT_LE / NOR2X1
XU401 n711 n710 VDD VSS n722 / NOR2X1
XU420 n739 n735 VDD VSS n738 / NOR2X1
XU424 A<4> n686 VDD VSS n739 / NOR2X1
XU437 n709 n751 VDD VSS n720 / NOR2X1
XU438 A<8> n691 VDD VSS n751 / NOR2X1
XU439 n693 A<9> VDD VSS n709 / NOR2X1
XU403 B<11> A<11> VDD VSS n705 / OR2X1
XU404 B<10> A<10> VDD VSS n723 / OR2X1
XU407 n685 A<15> VDD VSS n700 / OR2X1
XU408 n684 A<14> VDD VSS n725 / OR2X1
XU409 B<13> A<13> VDD VSS n719 / OR2X1
XU410 B<12> A<12> VDD VSS n724 / OR2X1
XU422 B<7> A<7> VDD VSS n736 / OR2X1
XU423 B<6> A<6> VDD VSS n740 / OR2X1
XU425 n687 A<5> VDD VSS n734 / OR2X1
XU433 n677 B<1> VDD VSS n747 / OR2X1
XU435 B<2> A<2> VDD VSS n745 / OR2X1
XU436 A<3> B<3> VDD VSS n741 / OR2X1
XU384 n698 n699 VDD VSS n697 / NAND2X1
XU386 n681 n701 VDD VSS n698 / NAND2X1
XU389 n678 n706 VDD VSS n703 / NAND2X1
XU390 n707 n708 VDD VSS n706 / NAND2X1
XU392 A<9> n693 VDD VSS n707 / NAND2X1
XU393 A<11> B<11> VDD VSS n702 / NAND2X1
XU395 A<15> n685 VDD VSS n714 / NAND2X1
XU396 n715 n716 VDD VSS n713 / NAND2X1
XU397 n717 n718 VDD VSS n716 / NAND2X1
XU399 A<13> B<13> VDD VSS n717 / NAND2X1
XU402 n723 n705 VDD VSS n710 / NAND2X1
XU413 n688 n731 VDD VSS n730 / NAND2X1
XU414 n732 n733 VDD VSS n731 / NAND2X1
XU416 A<5> n687 VDD VSS n732 / NAND2X1
XU417 A<7> B<7> VDD VSS n729 / NAND2X1
XU421 n740 n736 VDD VSS n735 / NAND2X1
XU429 n747 n748 VDD VSS n746 / NAND2X1
XU430 n749 n750 VDD VSS n748 / NAND2X1
XU431 B<1> n677 VDD VSS n750 / NAND2X1
XU432 B<0> A<0> VDD VSS n749 / NAND2X1
XU434 B<3> A<3> VDD VSS n744 / NAND2X1
XU385 n700 n684 A<14> VDD VSS n699 / NAND3X1
XU387 n702 n703 n704 VDD VSS n701 / NAND3X1
XU388 n705 B<10> A<10> VDD VSS n704 / NAND3X1
XU391 n692 n691 A<8> VDD VSS n708 / NAND3X1
XU394 n712 n713 n714 VDD VSS n696 / NAND3X1
XU398 n719 B<12> A<12> VDD VSS n718 / NAND3X1
XU400 n720 n721 n722 VDD VSS n712 / NAND3X1
XU405 n724 n719 n715 VDD VSS n711 / NAND3X1
XU411 n726 n727 n728 VDD VSS n721 / NAND3X1
XU415 n734 n686 A<4> VDD VSS n733 / NAND3X1
XU418 n736 B<6> A<6> VDD VSS n727 / NAND3X1
XU419 n737 n734 n738 VDD VSS n726 / NAND3X1
XU426 n741 n742 n743 VDD VSS n737 / NAND3X1
XU427 n744 B<2> A<2> VDD VSS n743 / NAND3X1
XU428 n745 n744 n746 VDD VSS n742 / NAND3X1
XU406 n725 n700 VDD VSS n715 / AND2X1
XU412 n729 n730 VDD VSS n728 / AND2X1
XU364 A<1> VDD VSS n677 / INVX2
XU365 n710 VDD VSS n678 / INVX2
XU368 n711 VDD VSS n681 / INVX2
XU371 B<14> VDD VSS n684 / INVX2
XU372 B<15> VDD VSS n685 / INVX2
XU373 B<4> VDD VSS n686 / INVX2
XU374 B<5> VDD VSS n687 / INVX2
XU375 n735 VDD VSS n688 / INVX2
XU378 B<8> VDD VSS n691 / INVX2
XU379 n709 VDD VSS n692 / INVX2
XU380 B<9> VDD VSS n693 / INVX2
.ENDS

************************************************************************
* Library Name: 16bitcpu
* Cell Name:    ALU_WIDTH16_DW_cmp_0
* View Name:    schematic
************************************************************************

.SUBCKT ALU_WIDTH16_DW_cmp_0 A<15> A<14> A<13> A<12> A<11> A<10> A<9> A<8> 
+ A<7> A<6> A<5> A<4> A<3> A<2> A<1> A<0> B<15> B<14> B<13> B<12> B<11> B<10> 
+ B<9> B<8> B<7> B<6> B<5> B<4> B<3> B<2> B<1> B<0> EQ_NE GE_GT_EQ GE_LT 
+ GE_LT_GT_LE TC VDD VSS
*.PININFO A<15>:I A<14>:I A<13>:I A<12>:I A<11>:I A<10>:I A<9>:I A<8>:I A<7>:I 
*.PININFO A<6>:I A<5>:I A<4>:I A<3>:I A<2>:I A<1>:I A<0>:I B<15>:I B<14>:I 
*.PININFO B<13>:I B<12>:I B<11>:I B<10>:I B<9>:I B<8>:I B<7>:I B<6>:I B<5>:I 
*.PININFO B<4>:I B<3>:I B<2>:I B<1>:I B<0>:I GE_GT_EQ:I GE_LT:I TC:I EQ_NE:O 
*.PININFO GE_LT_GT_LE:O VDD:B VSS:B
XU383 n696 n697 VDD VSS GE_LT_GT_LE / NOR2X1
XU401 n711 n710 VDD VSS n722 / NOR2X1
XU420 n739 n735 VDD VSS n738 / NOR2X1
XU424 A<4> n692 VDD VSS n739 / NOR2X1
XU437 n709 n751 VDD VSS n720 / NOR2X1
XU438 A<8> n687 VDD VSS n751 / NOR2X1
XU439 n686 A<9> VDD VSS n709 / NOR2X1
XU403 B<11> A<11> VDD VSS n705 / OR2X1
XU404 B<10> A<10> VDD VSS n723 / OR2X1
XU407 B<15> A<15> VDD VSS n700 / OR2X1
XU408 n683 A<14> VDD VSS n725 / OR2X1
XU409 B<13> A<13> VDD VSS n719 / OR2X1
XU410 B<12> A<12> VDD VSS n724 / OR2X1
XU422 B<7> A<7> VDD VSS n736 / OR2X1
XU423 B<6> A<6> VDD VSS n740 / OR2X1
XU425 n691 A<5> VDD VSS n734 / OR2X1
XU433 n676 B<1> VDD VSS n747 / OR2X1
XU435 B<2> A<2> VDD VSS n745 / OR2X1
XU436 A<3> B<3> VDD VSS n741 / OR2X1
XU384 n698 n699 VDD VSS n697 / NAND2X1
XU386 n680 n701 VDD VSS n698 / NAND2X1
XU389 n677 n706 VDD VSS n703 / NAND2X1
XU390 n707 n708 VDD VSS n706 / NAND2X1
XU392 A<9> n686 VDD VSS n707 / NAND2X1
XU393 A<11> B<11> VDD VSS n702 / NAND2X1
XU395 A<15> B<15> VDD VSS n714 / NAND2X1
XU396 n715 n716 VDD VSS n713 / NAND2X1
XU397 n717 n718 VDD VSS n716 / NAND2X1
XU399 A<13> B<13> VDD VSS n717 / NAND2X1
XU402 n723 n705 VDD VSS n710 / NAND2X1
XU413 n688 n731 VDD VSS n730 / NAND2X1
XU414 n732 n733 VDD VSS n731 / NAND2X1
XU416 A<5> n691 VDD VSS n732 / NAND2X1
XU417 A<7> B<7> VDD VSS n729 / NAND2X1
XU421 n740 n736 VDD VSS n735 / NAND2X1
XU429 n747 n748 VDD VSS n746 / NAND2X1
XU430 n749 n750 VDD VSS n748 / NAND2X1
XU431 B<1> n676 VDD VSS n750 / NAND2X1
XU432 B<0> A<0> VDD VSS n749 / NAND2X1
XU434 B<3> A<3> VDD VSS n744 / NAND2X1
XU385 n700 n683 A<14> VDD VSS n699 / NAND3X1
XU387 n702 n703 n704 VDD VSS n701 / NAND3X1
XU388 n705 B<10> A<10> VDD VSS n704 / NAND3X1
XU391 n685 n687 A<8> VDD VSS n708 / NAND3X1
XU394 n712 n713 n714 VDD VSS n696 / NAND3X1
XU398 n719 B<12> A<12> VDD VSS n718 / NAND3X1
XU400 n720 n721 n722 VDD VSS n712 / NAND3X1
XU405 n724 n719 n715 VDD VSS n711 / NAND3X1
XU411 n726 n727 n728 VDD VSS n721 / NAND3X1
XU415 n734 n692 A<4> VDD VSS n733 / NAND3X1
XU418 n736 B<6> A<6> VDD VSS n727 / NAND3X1
XU419 n737 n734 n738 VDD VSS n726 / NAND3X1
XU426 n741 n742 n743 VDD VSS n737 / NAND3X1
XU427 n744 B<2> A<2> VDD VSS n743 / NAND3X1
XU428 n745 n744 n746 VDD VSS n742 / NAND3X1
XU406 n725 n700 VDD VSS n715 / AND2X1
XU412 n729 n730 VDD VSS n728 / AND2X1
XU363 A<1> VDD VSS n676 / INVX2
XU364 n710 VDD VSS n677 / INVX2
XU367 n711 VDD VSS n680 / INVX2
XU370 B<14> VDD VSS n683 / INVX2
XU372 n709 VDD VSS n685 / INVX2
XU373 B<9> VDD VSS n686 / INVX2
XU374 B<8> VDD VSS n687 / INVX2
XU375 n735 VDD VSS n688 / INVX2
XU378 B<5> VDD VSS n691 / INVX2
XU379 B<4> VDD VSS n692 / INVX2
.ENDS

************************************************************************
* Library Name: 16bitcpu
* Cell Name:    ALU_WIDTH16
* View Name:    schematic
************************************************************************

.SUBCKT ALU_WIDTH16 PSR<7> PSR<6> PSR<5> PSR<4> PSR<3> PSR<2> PSR<1> PSR<0> 
+ VDD VSS a<15> a<14> a<13> a<12> a<11> a<10> a<9> a<8> a<7> a<6> a<5> a<4> 
+ a<3> a<2> a<1> a<0> alucont<3> alucont<2> alucont<1> alucont<0> b<15> b<14> 
+ b<13> b<12> b<11> b<10> b<9> b<8> b<7> b<6> b<5> b<4> b<3> b<2> b<1> b<0> 
+ result<15> result<14> result<13> result<12> result<11> result<10> result<9> 
+ result<8> result<7> result<6> result<5> result<4> result<3> result<2> 
+ result<1> result<0>
*.PININFO a<15>:I a<14>:I a<13>:I a<12>:I a<11>:I a<10>:I a<9>:I a<8>:I a<7>:I 
*.PININFO a<6>:I a<5>:I a<4>:I a<3>:I a<2>:I a<1>:I a<0>:I alucont<3>:I 
*.PININFO alucont<2>:I alucont<1>:I alucont<0>:I b<15>:I b<14>:I b<13>:I 
*.PININFO b<12>:I b<11>:I b<10>:I b<9>:I b<8>:I b<7>:I b<6>:I b<5>:I b<4>:I 
*.PININFO b<3>:I b<2>:I b<1>:I b<0>:I PSR<7>:O PSR<6>:O PSR<5>:O PSR<4>:O 
*.PININFO PSR<3>:O PSR<2>:O PSR<1>:O PSR<0>:O result<15>:O result<14>:O 
*.PININFO result<13>:O result<12>:O result<11>:O result<10>:O result<9>:O 
*.PININFO result<8>:O result<7>:O result<6>:O result<5>:O result<4>:O 
*.PININFO result<3>:O result<2>:O result<1>:O result<0>:O VDD:B VSS:B
*.CONNECT PSR<7> n87 
*.CONNECT PSR<6> n87 
*.CONNECT PSR<5> n87 
*.CONNECT b<15> N110 
*.CONNECT a<15> N109 
XFE_DBTC17_src1_3 a<3> VDD VSS FE_DBTN17_src1_3 / INVX1
XFE_DBTC16_src1_0 a<0> VDD VSS FE_DBTN16_src1_0 / INVX1
XFE_DBTC8_N108 N108 VDD VSS FE_DBTN8_N108 / INVX1
XFE_DBTC7_sum_2 sum<2> VDD VSS FE_DBTN7_sum_2 / INVX1
XFE_DBTC6_sum_6 sum<6> VDD VSS FE_DBTN6_sum_6 / INVX1
XFE_DBTC5_sum_7 sum<7> VDD VSS FE_DBTN5_sum_7 / INVX1
XFE_DBTC4_sum_10 sum<10> VDD VSS FE_DBTN4_sum_10 / INVX1
XFE_DBTC3_sum_11 sum<11> VDD VSS FE_DBTN3_sum_11 / INVX1
XFE_DBTC2_sum_12 sum<12> VDD VSS FE_DBTN2_sum_12 / INVX1
XFE_DBTC1_sum_13 sum<13> VDD VSS FE_DBTN1_sum_13 / INVX1
XU113 n106 VDD VSS n104 / INVX1
XU145 n127 VDD VSS n126 / INVX1
XU153 N109 VDD VSS n68 / INVX1
XU158 sum<3> VDD VSS n142 / INVX1
XU166 sum<0> VDD VSS n151 / INVX1
XU209 n135 VDD VSS n122 / INVX1
XU212 alucont<0> VDD VSS n117 / INVX1
XU214 n158 VDD VSS n177 / INVX1
XU216 alucont<2> VDD VSS n111 / INVX1
XU118 n111 n112 alucont<1> VDD VSS n105 / NAND3X1
XU119 n111 n112 n106 VDD VSS n113 / NAND3X1
XU121 n117 n111 alucont<1> VDD VSS n116 / NAND3X1
XU149 n118 FE_DBTN8_N108 n132 VDD VSS n131 / NAND3X1
XU156 FE_DBTN7_sum_2 n142 n143 VDD VSS n140 / NAND3X1
XU160 FE_DBTN6_sum_6 FE_DBTN5_sum_7 n146 VDD VSS n139 / NAND3X1
XU165 FE_DBTN4_sum_10 FE_DBTN3_sum_11 n151 VDD VSS n148 / NAND3X1
XU169 FE_DBTN2_sum_12 FE_DBTN1_sum_13 n154 VDD VSS n147 / NAND3X1
XU173 n127 n155 n156 VDD VSS n130 / NAND3X1
XU179 b<2> n1 n163 VDD VSS n162 / NAND3X1
XU181 b<6> b<7> n164 VDD VSS n161 / NAND3X1
XU186 b<10> b<11> n2 VDD VSS n166 / NAND3X1
XU189 b<12> b<13> n167 VDD VSS n165 / NAND3X1
XU195 n4 FE_DBTN17_src1_3 n172 VDD VSS n171 / NAND3X1
XU198 n5 FE_DBTN18_src1_7 n173 VDD VSS n170 / NAND3X1
XU201 n7 FE_DBTN19_src1_11 FE_DBTN16_src1_0 VDD VSS n175 / NAND3X1
XU203 n9 FE_DBTN20_src1_13 n176 VDD VSS n174 / NAND3X1
XU210 n106 n112 alucont<2> VDD VSS n135 / NAND3X1
XU215 alucont<0> n111 alucont<3> VDD VSS n158 / NAND3X1
XU176 n136 n122 VDD VSS n157 / AND2X1
XU213 N119 n177 VDD VSS PSR<0> / AND2X1
XU22 n16 n17 VDD VSS n15 / NOR2X1
XU28 n16 n24 VDD VSS n23 / NOR2X1
XU35 n16 n30 VDD VSS n27 / NOR2X1
XU41 n16 n36 VDD VSS n33 / NOR2X1
XU46 n16 n41 VDD VSS n40 / NOR2X1
XU52 n16 n46 VDD VSS n45 / NOR2X1
XU59 n16 n51 VDD VSS n49 / NOR2X1
XU65 n16 n57 VDD VSS n55 / NOR2X1
XU70 n16 n62 VDD VSS n61 / NOR2X1
XU76 n16 n67 VDD VSS n66 / NOR2X1
XU82 n16 n73 VDD VSS n72 / NOR2X1
XU89 n16 n79 VDD VSS n76 / NOR2X1
XU95 n16 n85 VDD VSS n82 / NOR2X1
XU101 n16 n93 VDD VSS n90 / NOR2X1
XU107 n16 n99 VDD VSS n96 / NOR2X1
XU116 n16 n109 VDD VSS n107 / NOR2X1
XU139 n118 n119 VDD VSS PSR<4> / NOR2X1
XU150 n68 n133 VDD VSS n132 / NOR2X1
XU155 n139 n140 VDD VSS n138 / NOR2X1
XU157 sum<5> sum<4> VDD VSS n143 / NOR2X1
XU161 sum<9> sum<8> VDD VSS n146 / NOR2X1
XU164 n147 n148 VDD VSS n137 / NOR2X1
XU170 sum<1> sum<14> VDD VSS n154 / NOR2X1
XU175 n158 alucont<1> VDD VSS n129 / NOR2X1
XU178 n161 n162 VDD VSS n160 / NOR2X1
XU180 b<5> b<4> VDD VSS n163 / NOR2X1
XU182 b<9> b<8> VDD VSS n164 / NOR2X1
XU185 n165 n166 VDD VSS n159 / NOR2X1
XU190 b<1> b<14> VDD VSS n167 / NOR2X1
XU194 n170 n171 VDD VSS n169 / NOR2X1
XU196 a<5> a<4> VDD VSS n172 / NOR2X1
XU199 a<9> a<8> VDD VSS n173 / NOR2X1
XU200 n174 n175 VDD VSS n168 / NOR2X1
XU204 a<1> a<14> VDD VSS n176 / NOR2X1
XU205 FE_DBTN8_N108 N109 VDD VSS n127 / NOR2X1
XU206 n102 FE_DBTN8_N108 VDD VSS PSR<1> / NOR2X1
XU208 n177 n122 VDD VSS n102 / NOR2X1
XU211 n117 alucont<1> VDD VSS n106 / NOR2X1
XU19 n11 n12 VDD VSS result<9> / NAND2X1
XU20 sum<9> n13 VDD VSS n12 / NAND2X1
XU24 a<9> n18 VDD VSS n14 / NAND2X1
XU25 n20 n21 VDD VSS result<8> / NAND2X1
XU26 sum<8> n13 VDD VSS n21 / NAND2X1
XU30 a<8> n18 VDD VSS n22 / NAND2X1
XU31 n25 n26 VDD VSS result<7> / NAND2X1
XU32 sum<7> n13 VDD VSS n26 / NAND2X1
XU34 a<7> n18 VDD VSS n28 / NAND2X1
XU37 n31 n32 VDD VSS result<6> / NAND2X1
XU38 sum<6> n13 VDD VSS n32 / NAND2X1
XU40 a<6> n18 VDD VSS n34 / NAND2X1
XU43 n37 n38 VDD VSS result<5> / NAND2X1
XU44 sum<5> n13 VDD VSS n38 / NAND2X1
XU48 a<5> n18 VDD VSS n39 / NAND2X1
XU49 n42 n43 VDD VSS result<4> / NAND2X1
XU50 sum<4> n13 VDD VSS n43 / NAND2X1
XU54 a<4> n18 VDD VSS n44 / NAND2X1
XU55 n47 n48 VDD VSS result<3> / NAND2X1
XU56 sum<3> n13 VDD VSS n48 / NAND2X1
XU58 a<3> n18 VDD VSS n50 / NAND2X1
XU61 n53 n54 VDD VSS result<2> / NAND2X1
XU62 sum<2> n13 VDD VSS n54 / NAND2X1
XU64 a<2> n18 VDD VSS n56 / NAND2X1
XU67 n58 n59 VDD VSS result<1> / NAND2X1
XU68 sum<1> n13 VDD VSS n59 / NAND2X1
XU72 a<1> n18 VDD VSS n60 / NAND2X1
XU73 n63 n64 VDD VSS result<15> / NAND2X1
XU74 N108 n13 VDD VSS n64 / NAND2X1
XU78 N109 n18 VDD VSS n65 / NAND2X1
XU79 n69 n70 VDD VSS result<14> / NAND2X1
XU80 sum<14> n13 VDD VSS n70 / NAND2X1
XU84 a<14> n18 VDD VSS n71 / NAND2X1
XU85 n74 n75 VDD VSS result<13> / NAND2X1
XU86 sum<13> n13 VDD VSS n75 / NAND2X1
XU88 a<13> n18 VDD VSS n77 / NAND2X1
XU91 n80 n81 VDD VSS result<12> / NAND2X1
XU92 sum<12> n13 VDD VSS n81 / NAND2X1
XU94 a<12> n18 VDD VSS n83 / NAND2X1
XU97 n86 n89 VDD VSS result<11> / NAND2X1
XU98 sum<11> n13 VDD VSS n89 / NAND2X1
XU100 a<11> n18 VDD VSS n91 / NAND2X1
XU103 n94 n95 VDD VSS result<10> / NAND2X1
XU104 sum<10> n13 VDD VSS n95 / NAND2X1
XU106 a<10> n18 VDD VSS n97 / NAND2X1
XU109 n100 n101 VDD VSS result<0> / NAND2X1
XU110 sum<0> n13 VDD VSS n101 / NAND2X1
XU111 n102 n103 VDD VSS n13 / NAND2X1
XU112 n104 n105 VDD VSS n103 / NAND2X1
XU115 a<0> n18 VDD VSS n108 / NAND2X1
XU122 alucont<2> n106 VDD VSS n115 / NAND2X1
XU141 n120 n121 VDD VSS PSR<3> / NAND2X1
XU142 n122 n123 VDD VSS n121 / NAND2X1
XU143 n124 n125 VDD VSS n123 / NAND2X1
XU144 N110 n126 VDD VSS n125 / NAND2X1
XU146 N109 FE_DBTN8_N108 VDD VSS n124 / NAND2X1
XU147 N127 n129 VDD VSS n120 / NAND2X1
XU148 n130 n131 VDD VSS PSR<2> / NAND2X1
XU152 n129 n136 VDD VSS n134 / NAND2X1
XU154 n137 n138 VDD VSS n118 / NAND2X1
XU177 n159 n160 VDD VSS n136 / NAND2X1
XU193 n168 n169 VDD VSS n155 / NAND2X1
XU21 n14 n15 b<9> VDD VSS n11 / MUX2X1
XU23 n18 n19 a<9> VDD VSS n17 / MUX2X1
XU27 n22 n23 b<8> VDD VSS n20 / MUX2X1
XU29 n18 n19 a<8> VDD VSS n24 / MUX2X1
XU33 n27 n28 b<7> VDD VSS n25 / MUX2X1
XU36 n19 n18 FE_DBTN18_src1_7 VDD VSS n30 / MUX2X1
XU39 n33 n34 b<6> VDD VSS n31 / MUX2X1
XU42 n19 n18 n5 VDD VSS n36 / MUX2X1
XU45 n39 n40 b<5> VDD VSS n37 / MUX2X1
XU47 n18 n19 a<5> VDD VSS n41 / MUX2X1
XU51 n44 n45 b<4> VDD VSS n42 / MUX2X1
XU53 n18 n19 a<4> VDD VSS n46 / MUX2X1
XU57 n49 n50 n1 VDD VSS n47 / MUX2X1
XU60 n19 n18 FE_DBTN17_src1_3 VDD VSS n51 / MUX2X1
XU63 n55 n56 b<2> VDD VSS n53 / MUX2X1
XU66 n19 n18 n4 VDD VSS n57 / MUX2X1
XU69 n60 n61 b<1> VDD VSS n58 / MUX2X1
XU71 n18 n19 a<1> VDD VSS n62 / MUX2X1
XU75 n65 n66 N110 VDD VSS n63 / MUX2X1
XU77 n19 n18 n68 VDD VSS n67 / MUX2X1
XU81 n71 n72 b<14> VDD VSS n69 / MUX2X1
XU83 n18 n19 a<14> VDD VSS n73 / MUX2X1
XU87 n76 n77 b<13> VDD VSS n74 / MUX2X1
XU90 n19 n18 FE_DBTN20_src1_13 VDD VSS n79 / MUX2X1
XU93 n82 n83 b<12> VDD VSS n80 / MUX2X1
XU96 n19 n18 n9 VDD VSS n85 / MUX2X1
XU99 n90 n91 b<11> VDD VSS n86 / MUX2X1
XU102 n19 n18 FE_DBTN19_src1_11 VDD VSS n93 / MUX2X1
XU105 n96 n97 b<10> VDD VSS n94 / MUX2X1
XU108 n19 n18 n7 VDD VSS n99 / MUX2X1
XU114 n107 n108 n2 VDD VSS n100 / MUX2X1
XU117 n19 n18 FE_DBTN16_src1_0 VDD VSS n109 / MUX2X1
XU120 n115 n116 n112 VDD VSS n114 / MUX2X1
XU151 n134 n135 N110 VDD VSS n133 / MUX2X1
XU174 n157 n129 N110 VDD VSS n156 / MUX2X1
XU140 n102 N108 VDD VSS n119 / OR2X1
XU123 b<9> alucont<3> VDD VSS b2<9> / XOR2X1
XU124 b<8> alucont<3> VDD VSS b2<8> / XOR2X1
XU125 b<7> n112 VDD VSS b2<7> / XOR2X1
XU126 b<6> n112 VDD VSS b2<6> / XOR2X1
XU127 b<5> alucont<3> VDD VSS b2<5> / XOR2X1
XU128 b<4> alucont<3> VDD VSS b2<4> / XOR2X1
XU129 n1 n112 VDD VSS b2<3> / XOR2X1
XU130 b<2> n112 VDD VSS b2<2> / XOR2X1
XU131 b<1> alucont<3> VDD VSS b2<1> / XOR2X1
XU132 alucont<3> N110 VDD VSS b2<15> / XOR2X1
XU133 b<14> alucont<3> VDD VSS b2<14> / XOR2X1
XU134 b<13> n112 VDD VSS b2<13> / XOR2X1
XU135 b<12> n112 VDD VSS b2<12> / XOR2X1
XU136 b<11> n112 VDD VSS b2<11> / XOR2X1
XU137 b<10> n112 VDD VSS b2<10> / XOR2X1
XU138 n2 n112 VDD VSS b2<0> / XOR2X1
XU15 n114 VDD VSS n16 / INVX4
XU18 n113 VDD VSS n19 / INVX4
XU17 VDD VSS n88 / TIE1
XU16 VDD VSS n87 / TIE0
XFE_DBTC20_src1_13 a<13> VDD VSS FE_DBTN20_src1_13 / INVX2
XFE_DBTC19_src1_11 a<11> VDD VSS FE_DBTN19_src1_11 / INVX2
XFE_DBTC18_src1_7 a<7> VDD VSS FE_DBTN18_src1_7 / INVX2
XU3 b<0> VDD VSS n2 / INVX2
XU4 alucont<3> VDD VSS n112 / INVX2
XU6 b<3> VDD VSS n1 / INVX2
XU7 n105 VDD VSS n18 / INVX2
XU8 a<2> VDD VSS n4 / INVX2
XU10 a<6> VDD VSS n5 / INVX2
XU12 a<10> VDD VSS n7 / INVX2
XU14 a<12> VDD VSS n9 / INVX2
Xadd_1_root_add_14_2 N109 a<14> a<13> a<12> a<11> a<10> a<9> a<8> a<7> a<6> 
+ a<5> a<4> a<3> a<2> a<1> a<0> b2<15> b2<14> b2<13> b2<12> b2<11> b2<10> 
+ b2<9> b2<8> b2<7> b2<6> b2<5> b2<4> b2<3> b2<2> b2<1> b2<0> alucont<3> 
+ NeTt_1 N108 sum<14> sum<13> sum<12> sum<11> sum<10> sum<9> sum<8> sum<7> 
+ sum<6> sum<5> sum<4> sum<3> sum<2> sum<1> sum<0> VDD VSS FE_DBTN17_src1_3 
+ FE_DBTN18_src1_7 FE_DBTN19_src1_11 FE_DBTN20_src1_13 / ALU_WIDTH16_DW01_add_0
Xr447 N109 a<14> a<13> a<12> a<11> a<10> a<9> a<8> a<7> a<6> a<5> a<4> 
+ FE_DBTN17_src1_3 a<2> a<1> FE_DBTN16_src1_0 N110 b<14> b<13> b<12> b<11> 
+ b<10> b<9> b<8> b<7> b<6> b<5> b<4> b<3> b<2> b<1> b<0> NeTt_2 n87 n88 N119 
+ n87 VDD VSS / ALU_WIDTH16_DW_cmp_1
Xlt_60 N109 a<14> a<13> a<12> a<11> a<10> a<9> a<8> a<7> a<6> a<5> a<4> 
+ FE_DBTN17_src1_3 a<2> a<1> FE_DBTN16_src1_0 FE_DBTN8_N108 sum<14> 
+ FE_DBTN1_sum_13 FE_DBTN2_sum_12 FE_DBTN3_sum_11 FE_DBTN4_sum_10 sum<9> 
+ sum<8> FE_DBTN5_sum_7 FE_DBTN6_sum_6 sum<5> sum<4> sum<3> FE_DBTN7_sum_2 
+ sum<1> sum<0> NeTt_3 n87 n88 N127 n87 VDD VSS / ALU_WIDTH16_DW_cmp_0
.ENDS

************************************************************************
* Library Name: SC_LIB
* Cell Name:    DFFQX1
* View Name:    schematic
************************************************************************

.SUBCKT DFFQX1 CLK D Q VDD VSS
*.PININFO CLK:I D:I Q:O VDD:B VSS:B
MM8 net9 CLKB net12 VSS N l=180.0n w=220.0n m=1
MM5 net7 CLK net9 VSS N l=180.0n w=220.0n m=1
MM16 net6 net7 VSS VSS N l=180.0n w=220.0n m=1
MM13 net12 Q VSS VSS N l=180.0n w=220.0n m=1
MM15 Q net9 VSS VSS N l=180.0n w=220.0n m=1
MM3 D_TGATE CLK net6 VSS N l=180.0n w=220.0n m=1
MM0 D CLKB D_TGATE VSS N l=180.0n w=220.0n m=1
MM10 CLKB CLK VSS VSS N l=180.0n w=220.0n m=1
MM18 net7 D_TGATE VSS VSS N l=180.0n w=220.0n m=1
MM12 net12 Q VDD VDD P l=180.0n w=440.0n m=1
MM14 Q net9 VDD VDD P l=180.0n w=440.0n m=1
MM9 net12 CLK net9 VDD P l=180.0n w=440.0n m=1
MM4 net9 CLKB net7 VDD P l=180.0n w=440.0n m=1
MM11 CLKB CLK VDD VDD P l=180.0n w=440.0n m=1